plants.plt: written by SWAT+ editor v1.2.1 on 2019-08-08 12:02
name                      plnt_typ          gro_trig       nfix_co      days_mat          bm_e      harv_idx       lai_pot      frac_hu1      lai_max1      frac_hu2      lai_max2   hu_lai_decl     dlai_rate    can_ht_max     rt_dp_max       tmp_opt      tmp_base    frac_n_yld    frac_p_yld     frac_n_em     frac_n_50    frac_n_mat     frac_p_em     frac_p_50    frac_p_mat   harv_idx_ws    usle_c_min     stcon_max           vpd    frac_stcon        ru_vpd        co2_hi       bm_e_hi   plnt_decomp       lai_min   bm_tree_acc       yrs_mat   bm_tree_max        ext_co   leaf_tov_mn   leaf_tov_mx     bm_dieoff     rt_st_beg     rt_st_end     plnt_pop1     frac_lai1     plnt_pop2     frac_lai2   frac_sw_gro      wnd_live      wnd_dead      wnd_flat  description
agrc                   cold_annual          temp_gro       0.00000     110.00000      30.00000       0.40000       4.00000       0.05000       0.05000       0.45000       0.95000       0.50000       1.00000       0.90000       1.30000      18.00000       0.00000       0.02500       0.00220       0.06630       0.02550       0.01480       0.00530       0.00200       0.00120       0.20000       0.03000       0.00600       4.00000       0.75000       6.00000     660.00000      39.00000       0.05000       0.00000       0.00000       0.00000       0.00000       0.65000      12.00000       3.00000       0.10000       0.00000       0.00000       0.00000       0.00000       0.00000       0.00000       0.50000       0.00000       0.00000       0.00000  agricultural_land_close_grown
agrl                   warm_annual          temp_gro       0.00000     110.00000      33.50000       0.45000       3.00000       0.15000       0.05000       0.50000       0.95000       0.64000       1.00000       1.00000       2.00000      30.00000      11.00000       0.01990       0.00320       0.04400       0.01640       0.01280       0.00600       0.00220       0.00180       0.25000       0.20000       0.00500       4.00000       0.75000       8.50000     660.00000      36.00000       0.05000       0.00000       0.00000       0.00000       0.00000       0.65000      12.00000       3.00000       0.10000       0.00000       0.00000       0.00000       0.00000       0.00000       0.00000       0.50000       0.00000       0.00000       0.00000  agricultural_land_generic
agrr                   warm_annual          temp_gro       0.00000     110.00000      39.00000       0.50000       3.00000       0.15000       0.05000       0.50000       0.95000       0.70000       1.00000       2.50000       2.00000      25.00000       8.00000       0.01400       0.00160       0.04700       0.01770       0.01380       0.00480       0.00180       0.00140       0.30000       0.20000       0.00700       4.00000       0.75000       7.20000     660.00000      45.00000       0.05000       0.00000       0.00000       0.00000       0.00000       0.65000      12.00000       3.00000       0.10000       0.00000       0.00000       0.00000       0.00000       0.00000       0.00000       0.50000       0.00000       0.00000       0.00000  agricultural_land_row
alfa                     perennial          temp_gro       0.50000       0.00000      20.00000       0.90000       4.00000       0.15000       0.01000       0.50000       0.95000       0.90000       0.50000       0.90000       3.00000      20.00000       4.00000       0.02500       0.00350       0.04170       0.02900       0.02000       0.00350       0.00280       0.00200       0.90000       0.01000       0.01000       4.00000       0.75000      10.00000     660.00000      35.00000       0.05000       2.00000       0.30000       2.00000      30.00000       0.65000      12.00000       3.00000       0.10000       0.00000       0.00000       0.00000       0.00000       0.00000       0.00000       0.50000       0.00000       0.00000       0.00000  alfalfa
almd                     perennial          temp_gro       0.00000       0.00000      16.10000       0.05000       1.20000       0.05000       0.05000       0.40000       0.95000       0.99000       1.00000       6.00000       3.50000      30.00000      10.00000       0.00150       0.00030       0.02000       0.01000       0.00800       0.00070       0.00040       0.00030       0.01000       0.00100       0.00360       4.00000       0.75000       8.00000     660.00000      18.00000       0.05000       0.75000       0.30000      10.00000      50.00000       0.61000      12.00000       3.00000       0.10000       0.00000       0.00000       0.00000       0.00000       0.00000       0.00000       0.50000       0.00000       0.00000       0.00000  almond
appl                     perennial          temp_gro       0.00000       0.00000      15.00000       0.10000       4.00000       0.10000       0.15000       0.50000       0.75000       0.99000       1.00000       3.50000       2.00000      20.00000       7.00000       0.00190       0.00040       0.00600       0.00200       0.00150       0.00070       0.00040       0.00030       0.05000       0.00100       0.00700       4.00000       0.75000       3.00000     660.00000      20.00000       0.05000       0.75000       0.30000      10.00000      50.00000       0.65000      12.00000       3.00000       0.10000       0.00000       0.00000       0.00000       0.00000       0.00000       0.00000       0.50000       0.00000       0.00000       0.00000  apple
aspn                     perennial          temp_gro       0.00000       0.00000      30.00000       0.76000       5.00000       5.00000       0.05000      40.00000       0.95000       0.99000       1.00000      27.00000       3.00000      30.00000      10.00000       0.00150       0.00030       0.00500       0.00300       0.00200       0.00050       0.00040       0.00030       0.00000       0.00100       0.00070      -6.50000       1.00000       8.00000     660.00000      35.00000       0.05000       0.75000       0.30000      50.00000     100.00000       0.64000      12.00000       3.00000       0.10000       0.00000       0.00000       0.00000       0.00000       0.00000       0.00000       0.50000       0.00000       0.00000       0.00000  aspen
aspr                     perennial          temp_gro       0.00000       0.00000      90.00000       0.80000       4.20000       0.25000       0.23000       0.40000       0.86000       1.00000       0.10000       0.50000       2.00000      24.00000      10.00000       0.06300       0.00670       0.06200       0.05000       0.04000       0.00500       0.00400       0.00200       0.95000       0.20000       0.00600       4.00000       0.75000       5.00000     660.00000      95.00000       0.05000       0.10000       0.10000       1.00000      20.00000       0.65000      12.00000       3.00000       0.10000       0.00000       0.00000       0.00000       0.00000       0.00000       0.00000       0.50000       0.00000       0.00000       0.00000  asparagus
bana                     perennial          temp_gro       0.00000       0.00000      30.00000       0.44000       4.50000       0.05000       0.05000       0.40000       0.95000       0.99000       1.00000       7.50000       3.50000      30.00000      10.00000       0.00640       0.00080       0.06000       0.03200       0.01600       0.00300       0.00200       0.00100       0.01000       0.00100       0.00360       4.00000       0.75000       8.00000     660.00000      31.00000       0.05000       0.75000       0.30000      10.00000      50.00000       0.45000      12.00000       3.00000       0.10000       0.00000       0.00000       0.00000       0.00000       0.00000       0.00000       0.50000       0.00000       0.00000       0.00000  banana
barl                   cold_annual          temp_gro       0.00000     105.00000      35.00000       0.54000       4.00000       0.15000       0.01000       0.45000       0.95000       0.60000       1.00000       1.20000       1.30000      25.00000       0.00000       0.02100       0.00170       0.05900       0.02260       0.01310       0.00570       0.00220       0.00130       0.20000       0.01000       0.00800       4.00000       0.75000       7.00000     660.00000      45.00000       0.05000       0.00000       0.00000       0.00000       0.00000       0.65000      12.00000       3.00000       0.10000       0.00000       0.00000       0.00000       0.00000       0.00000       0.00000       0.50000       0.00000       0.00000       0.00000  spring_barley
barl100                cold_annual          temp_gro       0.00000     100.00000      35.00000       0.54000       4.00000       0.15000       0.01000       0.45000       0.95000       0.60000       1.00000       1.20000       1.30000      25.00000       0.00000       0.02100       0.00170       0.05900       0.02260       0.01310       0.00570       0.00220       0.00130       0.20000       0.01000       0.00800       4.00000       0.75000       7.00000     660.00000      45.00000       0.05000       0.00000       0.00000       0.00000       0.00000       0.65000      12.00000       3.00000       0.10000       0.00000       0.00000       0.00000       0.00000       0.00000       0.00000       0.50000       0.00000       0.00000       0.00000  spring_barley
barl105                cold_annual          temp_gro       0.00000     105.00000      35.00000       0.54000       4.00000       0.15000       0.01000       0.45000       0.95000       0.60000       1.00000       1.20000       1.30000      25.00000       0.00000       0.02100       0.00170       0.05900       0.02260       0.01310       0.00570       0.00220       0.00130       0.20000       0.01000       0.00800       4.00000       0.75000       7.00000     660.00000      45.00000       0.05000       0.00000       0.00000       0.00000       0.00000       0.65000      12.00000       3.00000       0.10000       0.00000       0.00000       0.00000       0.00000       0.00000       0.00000       0.50000       0.00000       0.00000       0.00000  spring_barley
bbls                     perennial          temp_gro       0.00000       0.00000      14.00000       0.90000       3.00000       0.05000       0.10000       0.25000       0.70000       0.35000       1.00000       1.00000       2.00000      25.00000      12.00000       0.01600       0.00220       0.02000       0.01200       0.00500       0.00140       0.00100       0.00070       0.90000       0.00300       0.00500       4.00000       0.75000      10.00000     660.00000      39.00000       0.05000       2.00000       0.30000       2.00000      30.00000       0.36000      12.00000       3.00000       0.10000       0.00000       0.00000       0.00000       0.00000       0.00000       0.00000       0.50000       0.00000       0.00000       0.00000  little_bluestem
berm                     perennial          temp_gro       0.00000       0.00000      35.00000       0.90000       4.00000       0.05000       0.05000       0.49000       0.95000       0.99000       1.00000       0.50000       2.00000      25.00000      12.00000       0.02340       0.00330       0.06000       0.02310       0.01340       0.00840       0.00320       0.00190       0.90000       0.00300       0.00500       4.00000       0.75000      10.00000     660.00000      36.00000       0.05000       2.00000       0.30000       2.00000      30.00000       1.00000      12.00000       3.00000       0.10000       0.00000       0.00000       0.00000       0.00000       0.00000       0.00000       0.50000       0.00000       0.00000       0.00000  bermudagrass
blug                     perennial          temp_gro       0.00000       0.00000      18.00000       0.90000       2.00000       0.05000       0.05000       0.30000       0.70000       0.35000       1.00000       0.20000       1.40000      25.00000      12.00000       0.01600       0.00220       0.02000       0.01000       0.00600       0.00140       0.00100       0.00070       0.90000       0.00300       0.00500       4.00000       0.75000      10.00000     660.00000      31.00000       0.05000       2.00000       0.30000       2.00000      30.00000       1.40000      12.00000       3.00000       0.10000       0.00000       0.00000       0.00000       0.00000       0.00000       0.00000       0.50000       0.00000       0.00000       0.00000  kentucky_bluegrass
bocu                     perennial          temp_gro       0.00000       0.00000      30.00000       0.90000       4.00000       0.15000       0.01000       0.50000       0.95000       0.80000       1.00000       1.50000       2.00000      15.00000       0.00000       0.02340       0.00330       0.05600       0.02100       0.01200       0.00990       0.00220       0.00190       0.90000       0.00300       0.00500       4.00000       0.75000       8.00000     660.00000      39.00000       0.05000       0.75000       0.30000      30.00000      30.00000       0.65000      12.00000       3.00000       0.10000       0.40000       0.20000      22.00000       0.05000      40.00000       0.71000       0.50000       0.00000       0.00000       0.00000  
broc                   cold_annual          temp_gro       0.00000      90.00000      26.00000       0.80000       4.20000       0.25000       0.23000       0.40000       0.86000       1.00000       0.10000       0.50000       0.60000      18.00000       4.00000       0.05120       0.00710       0.06200       0.00900       0.00700       0.00500       0.00400       0.00300       0.95000       0.20000       0.00600       4.00000       0.75000       5.00000     660.00000      30.00000       0.05000       0.00000       0.00000       0.00000       0.00000       0.65000      12.00000       3.00000       0.10000       0.00000       0.00000       0.00000       0.00000       0.00000       0.00000       0.50000       0.00000       0.00000       0.00000  broccoli
brom                     perennial          temp_gro       0.00000       0.00000      35.00000       0.90000       3.00000       0.45000       0.02000       0.80000       0.95000       0.85000       1.00000       0.80000       1.30000      25.00000       6.00000       0.02340       0.00330       0.04000       0.02400       0.01600       0.00280       0.00170       0.00110       0.90000       0.00300       0.00500       4.00000       0.75000       8.00000     660.00000      45.00000       0.05000       2.00000       0.30000       2.00000      30.00000       0.65000      12.00000       3.00000       0.10000       0.00000       0.00000       0.00000       0.00000       0.00000       0.00000       0.50000       0.00000       0.00000       0.00000  meadow_bromegrass
bros                     perennial          temp_gro       0.00000       0.00000      35.00000       0.90000       5.00000       0.15000       0.01000       0.50000       0.95000       0.85000       1.00000       1.20000       2.00000      25.00000       8.00000       0.02340       0.00330       0.04000       0.02400       0.01600       0.00280       0.00170       0.00110       0.90000       0.00300       0.00300       4.00000       0.75000       8.00000     660.00000      45.00000       0.05000       2.00000       0.30000       2.00000      30.00000       0.65000      12.00000       3.00000       0.10000       0.00000       0.00000       0.00000       0.00000       0.00000       0.00000       0.50000       0.00000       0.00000       0.00000  smooth_bromegrass
bsvg                     perennial          temp_gro       0.00000       0.00000      34.00000       0.90000       1.50000       0.05000       0.10000       0.25000       0.70000       0.35000       1.00000       1.00000       2.00000      25.00000      12.00000       0.01600       0.00220       0.02000       0.01200       0.00500       0.00140       0.00100       0.00070       0.90000       0.00300       0.00500       4.00000       0.75000      10.00000     660.00000      39.00000       0.05000       0.15000      39.00000      61.00000      74.00000      80.00000      12.00000       3.00000       0.00000       0.00000       0.00000       0.00000       0.00000       0.00000       0.00000       0.50000       0.00000       0.00000       0.00000  barren_or_sparsley_vegetated
cabg                     perennial          temp_gro       0.00000      90.00000      19.00000       0.80000       3.00000       0.25000       0.23000       0.40000       0.86000       1.00000       0.10000       0.50000       0.60000      18.00000       1.00000       0.02590       0.00310       0.06200       0.00700       0.00400       0.00500       0.00350       0.00200       0.95000       0.20000       0.00600       4.00000       0.75000       5.00000     660.00000      25.00000       0.05000       0.75000       0.80000       1.00000      30.00000       0.65000      12.00000       3.00000       0.10000       0.00000       0.00000       0.00000       0.00000       0.00000       0.00000       0.50000       0.00000       0.00000       0.00000  cabbage
cana                   warm_annual          temp_gro       0.00000     100.00000      34.00000       0.30000       4.50000       0.15000       0.02000       0.45000       0.95000       0.50000       0.30000       1.30000       1.40000      21.00000       5.00000       0.03800       0.00790       0.04400       0.01640       0.01280       0.00740       0.00370       0.00230       0.01000       0.20000       0.00600       4.00000       0.75000      10.00000     660.00000      40.00000       0.05000       0.00000       0.00000       0.00000       0.00000       0.65000      12.00000       3.00000       0.10000       0.00000       0.00000       0.00000       0.00000       0.00000       0.00000       0.50000       0.00000       0.00000       0.00000  spring_canola_argentine
cang                     perennial          temp_gro       0.00000       0.00000      35.00000       0.10000       5.00000       5.00000       0.17000      40.00000       0.90000       0.50000       1.00000       1.00000       0.20000      25.00000       3.00000       0.01600       0.00220       0.35000       0.01500       0.00380       0.00140       0.00100       0.00070       0.01000       0.00100       0.00740      -6.50000       1.00000       8.00000     660.00000      54.00000       0.05000       0.01000       0.30000      10.00000      50.00000       0.33000      12.00000       3.00000       0.10000       0.00000       0.00000       0.00000       0.00000       0.00000       0.00000       0.50000       0.00000       0.00000       0.00000  canary_grass
canp                   warm_annual          temp_gro       0.00000     100.00000      34.00000       0.23000       3.50000       0.15000       0.02000       0.45000       0.95000       0.50000       1.00000       0.90000       0.90000      21.00000       5.00000       0.03800       0.00790       0.04400       0.01640       0.01280       0.00740       0.00370       0.00230       0.01000       0.20000       0.00600       4.00000       0.75000      10.00000     660.00000      39.00000       0.05000       0.00000       0.00000       0.00000       0.00000       0.65000      12.00000       3.00000       0.10000       0.00000       0.00000       0.00000       0.00000       0.00000       0.00000       0.50000       0.00000       0.00000       0.00000  spring_canola_polish
cant                   warm_annual          temp_gro       0.00000      90.00000      30.00000       0.50000       3.00000       0.15000       0.05000       0.50000       0.95000       0.60000       1.00000       0.50000       1.20000      35.00000      15.00000       0.01380       0.00170       0.06630       0.02550       0.01480       0.00530       0.00200       0.00120       0.25000       0.03000       0.00600       4.00000       0.75000       3.00000     660.00000      39.00000       0.05000       0.00000       0.00000       0.00000       0.00000       0.65000      12.00000       3.00000       0.10000       0.00000       0.00000       0.00000       0.00000       0.00000       0.00000       0.50000       0.00000       0.00000       0.00000  cantaloupe
cash                     perennial          temp_gro       0.00000       0.00000      15.00000       0.15000       4.00000       0.10000       0.15000       0.50000       0.75000       0.99000       1.00000       3.50000       2.00000      20.00000       7.00000       0.00190       0.00040       0.00600       0.00200       0.00150       0.00070       0.00040       0.00030       0.05000       0.00100       0.00710       4.00000       0.75000       3.00000     660.00000      20.00000       0.05000       0.75000       0.30000      10.00000      50.00000       0.65000      12.00000       3.00000       0.10000       0.00000       0.00000       0.00000       0.00000       0.00000       0.00000       0.50000       0.00000       0.00000       0.00000  cashews
cauf                   cold_annual          temp_gro       0.00000      90.00000      21.00000       0.80000       2.50000       0.25000       0.23000       0.40000       0.86000       1.00000       0.10000       0.50000       0.60000      18.00000       5.00000       0.04110       0.00590       0.06200       0.00700       0.00400       0.00500       0.00350       0.00200       0.95000       0.20000       0.00600       4.00000       0.75000       5.00000     660.00000      25.00000       0.05000       0.00000       0.00000       0.00000       0.00000       0.65000      12.00000       3.00000       0.10000       0.00000       0.00000       0.00000       0.00000       0.00000       0.00000       0.50000       0.00000       0.00000       0.00000  cauliflower
cedr                     perennial          temp_gro       0.00000       0.00000      16.00000       0.01000      12.00000      20.00000       0.20000      99.00000       0.99000       0.99000       1.00000      12.00000       3.50000      30.00000      10.00000       0.00150       0.00030       0.00600       0.00200       0.00150       0.00070       0.00040       0.00030       0.00000       0.00100       0.00700      -3.50000       1.00000       8.00000     660.00000      15.00000       0.05000       0.75000       0.30000      50.00000     100.00000       0.37000      12.00000       3.00000       0.10000       0.00000       0.00000       0.00000       0.00000       0.00000       0.00000       0.50000       0.00000       0.00000       0.00000  cedar
celr                     perennial          temp_gro       0.00000       0.00000      27.00000       0.80000       2.50000       0.25000       0.23000       0.40000       0.86000       1.00000       0.10000       0.50000       0.60000      22.00000       4.00000       0.01990       0.00490       0.06200       0.01500       0.01000       0.00600       0.00500       0.00300       0.95000       0.20000       0.00600       4.00000       0.75000       5.00000     660.00000      30.00000       0.05000       0.10000       0.10000       1.00000      20.00000       0.65000      12.00000       3.00000       0.10000       0.00000       0.00000       0.00000       0.00000       0.00000       0.00000       0.50000       0.00000       0.00000       0.00000  celery
clva                     perennial          temp_gro       0.50000       0.00000      25.00000       0.90000       4.00000       0.15000       0.01000       0.50000       0.95000       0.75000       1.00000       0.90000       2.00000      15.00000       1.00000       0.06000       0.00400       0.06000       0.02800       0.02400       0.00600       0.00250       0.00250       0.90000       0.00300       0.00500       4.00000       0.75000      10.00000     660.00000      30.00000       0.05000       2.00000       0.30000       2.00000      30.00000       0.55000      12.00000       3.00000       0.10000       0.00000       0.00000       0.00000       0.00000       0.00000       0.00000       0.50000       0.00000       0.00000       0.00000  alsike_clover
clvr                   cold_annual          temp_gro       0.50000     110.00000      25.00000       0.90000       4.00000       0.15000       0.01000       0.50000       0.95000       0.75000      10.00000       0.75000       1.50000      15.00000       1.00000       0.06500       0.00400       0.06500       0.02800       0.02430       0.00600       0.00240       0.00240       0.90000       0.00300       0.00600       4.00000       0.75000      10.00000     660.00000      30.00000       0.05000       0.00000       0.00000       0.00000       0.00000       0.55000      12.00000       3.00000       0.10000       0.00000       0.00000       0.00000       0.00000       0.00000       0.00000       0.50000       0.00000       0.00000       0.00000  red_clover
clvs                     perennial          temp_gro       0.50000       0.00000      25.00000       0.90000       4.00000       0.15000       0.01000       0.50000       0.95000       0.75000       1.00000       1.50000       2.40000      15.00000       1.00000       0.06500       0.00400       0.06500       0.02800       0.02430       0.00600       0.00240       0.00240       0.90000       0.00300       0.00500       4.00000       0.75000      10.00000     660.00000      30.00000       0.05000       2.00000       0.30000       2.00000      30.00000       0.55000      12.00000       3.00000       0.10000       0.00000       0.00000       0.00000       0.00000       0.00000       0.00000       0.50000       0.00000       0.00000       0.00000  sweetclover
cngr                     perennial          temp_gro       0.00000       0.00000      35.00000       0.10000       5.00000       5.00000       0.05000      50.00000       0.99000       0.54000       1.00000       0.70000       1.30000      25.00000       6.00000       0.06500       0.00910       0.05240       0.02650       0.02580       0.00740       0.00370       0.00350       0.01000       0.00100       0.00700      -6.50000       1.00000       8.00000     660.00000      43.00000       0.05000       0.01000       0.30000      10.00000      50.00000       0.70000      12.00000       3.00000       0.10000       0.00000       0.00000       0.00000       0.00000       0.00000       0.00000       0.50000       0.00000       0.00000       0.00000  canada_grass
cocb                   warm_annual          temp_gro       0.00000     100.00000      33.00000       0.40000       5.80000       0.15000       0.50000       0.50000       0.95000       0.60000       1.00000       1.00000       2.00000      25.00000      10.00000       0.65000       0.00910       0.03000       0.02650       0.02580       0.00740       0.00370       0.00350       0.20000       0.00100       0.00700       4.00000       0.75000       8.00000     660.00000      45.00000       0.05000       0.01000       1.00000      10.00000      50.00000       0.60000      12.00000       3.00000       0.99000       0.00000       0.00000       0.00000       0.00000       0.00000       0.00000       0.50000       0.00000       0.00000       0.00000  cockle_burr
coco                     perennial          temp_gro       0.00000       0.00000      24.00000       0.56000       5.00000       0.15000       0.70000       0.25000       0.99000       0.99000       1.00000      10.00000       3.50000      30.00000       0.00000       0.00150       0.00030       0.00600       0.00200       0.00150       0.00070       0.00040       0.00030       0.60000       0.00100       0.00190       4.00000       0.75000       8.00000     660.00000      16.00000       0.05000       0.75000       0.30000      30.00000     100.00000       0.65000      12.00000       3.00000       0.00000       0.00000       0.00000       0.00000       0.00000       0.00000       0.00000       0.50000       0.00000       0.00000       0.00000  coconut_tree
coct                     perennial          temp_gro       0.00000       0.00000      15.00000       0.56000       3.50000       0.15000       0.05000       0.50000       0.99000       0.90000       1.00000      10.00000       3.50000      30.00000      10.00000       0.00150       0.00300       0.00600       0.00200       0.00150       0.00070       0.00040       0.00030       0.05000       0.00100       0.00700       4.75000       0.50000       8.00000     660.00000      45.00000       0.05000       0.75000       0.30000      10.00000     200.00000       0.45000      12.00000       3.00000       0.10000       0.00000       0.00000       0.00000       0.00000       0.00000       0.00000       0.50000       0.00000       0.00000       0.00000  cocoa_tree
coff                     perennial          temp_gro       0.00000       0.00000      10.00000       0.15000       1.35000       0.05000       0.05000       0.40000       0.95000       0.99000       1.00000       2.00000       2.00000      30.00000      10.00000       0.00150       0.00030       0.02000       0.01000       0.00800       0.00070       0.00040       0.00030       0.01000       0.00100       0.00360       4.00000       0.75000       8.00000     660.00000      18.00000       0.05000       0.75000       0.30000      10.00000      50.00000       0.61000      12.00000       3.00000       0.10000       0.00000       0.00000       0.00000       0.00000       0.00000       0.00000       0.50000       0.00000       0.00000       0.00000  coffee
cont                   warm_annual          temp_gro       0.00000     100.00000      39.00000       0.50000       6.00000       0.15000       0.05000       0.50000       0.95000       0.70000       1.00000       2.50000       2.00000      25.00000       8.00000       0.01400       0.00160       0.04700       0.01770       0.01380       0.00480       0.00180       0.00140       0.30000       0.07000       0.00700       4.00000       0.75000       7.20000     660.00000      45.00000       0.05000       0.00000       0.00000       0.00000       0.00000       0.65000      12.00000       3.00000       0.10000       0.00000       0.00000       0.00000       0.00000       0.00000       0.00000       0.50000       0.00000       0.00000       0.00000  