res_rel.dtl: written by SWAT+ editor v1.2.0 on 2019-06-19 15:32
160

name                     conds      alts      acts  
corps_med_res1               5         5         5  
var                        obj   obj_num           lim_var            lim_op     lim_const      alt1      alt2      alt3      alt4      alt5  
vol                        res         0              pvol                 *       1.00000         <         >         -         >         -  
vol                        res         0              pvol                 *       1.30000         -         <         >         -         -  
vol                        res         0              evol                 *       1.00000         -         -         <         <         >  
month                     null         0              null                 -       5.00000         -         >         >         <         -  
month                     null         0              null                 -       9.00000         -         <         <         >         -  
act_typ                    obj   obj_num              name            option         const        const2                fp  outcome           
release                    res         0   below_principal              days    1000.00000       0.00000              null  y   n   n   n   n   
release                    res         0     non_flood<1.3              days     365.00000       0.00000              pvol  n   y   n   n   n   
release                    res         0     non_flood>1.3              days     100.00000       0.00000              pvol  n   n   y   n   n   
release                    res         0             flood              days      25.00000       0.00000              pvol  n   n   n   y   n   
release                    res         0    over_emergency              days      15.00000       0.00000              evol  n   n   n   n   y   

name                     conds      alts      acts  
corps_med_res                2         2         2  
var                        obj   obj_num           lim_var            lim_op     lim_const      alt1      alt2  
vol                        res         0              pvol                 *       1.00000         >         -  
vol                        res         0              evol                 *       1.00000         <         >  
act_typ                    obj   obj_num              name            option         const        const2                fp  outcome           
release                    res         0         over_prin              days      15.00000       0.00000              pvol  y   n   
release                    res         0    over_emergency              days       5.00000       0.00000              evol  n   y   

name                     conds      alts      acts  
lrew_sm_res                  1         1         1  
var                        obj   obj_num           lim_var            lim_op     lim_const      alt1  
vol                        res         0              pvol                 *       1.00000         >  
act_typ                    obj   obj_num              name            option         const        const2                fp  outcome           
release                    res         0         over_prin              days       1.00000       0.00000              pvol  y   

name                     conds      alts      acts  
wetland                     2         2         2  
var                        obj   obj_num           lim_var            lim_op     lim_const      						alt1   alt2  
vol_wet                    hru         0              pvol                 *       1.00000         						>       -  
vol_wet                    hru         0              evol                 *       1.00000         						<       >  
act_typ                    obj   obj_num              name            option         const        const2       fp  		outcome           
release                    hru         0        below_emer              days      10.00000       0.00000      null  	y   	n   
release                    hru         0        above_emer              days       2.00000       0.00000      null  	n   	y   

name                     conds      alts      acts  
Americanfalls                5         7         5  
var                        obj   obj_num           lim_var            lim_op     lim_const      alt1      alt2      alt3      alt4      alt5      alt6      alt7  
vol                        res         0              e-pv                 =     -14.92000         >         >         >         -         -         -         -  
vol                        res         0              e-pv                 =       0.00500         <         <         <         >         >         >         -  
vol                        res         0              e-pv                 =       0.92900         -         -         -         <         <         <         >  
month                     null         0              null                 -       5.86400         <         -         >         <         -         >         -  
month                     null         0              null                 -      10.06200         -         >         <         -         >         <         -  
act_typ                    obj   obj_num              name            option         const        const2                fp  outcome           
release                    res         0   multiple_use_fl              dyrt      98.81715       0.58679              con1  y   y   n   n   n   n   n   
release                    res         0   multiple_use_nf              dyrt      37.90886       1.18299              con1  n   n   y   n   n   n   n   
release                    res         0    sfl_cont+mu_fl              dyrt       7.35954       0.50528              con2  n   n   n   y   y   n   n   
release                    res         0    sfl_cont+mu_nf              dyrt     331.67160       2.24604              con2  n   n   n   n   n   y   n   
release                    res         0          efc_cont              dyrt       9.89998       3.37091              con3  n   n   n   n   n   n   y   

name                     conds      alts      acts  
Aquilla                      5         7         5  
var                        obj   obj_num           lim_var            lim_op     lim_const      alt1      alt2      alt3      alt4      alt5      alt6      alt7  
vol                        res         0              e-pv                 =      -0.02600         >         >         >         -         -         -         -  
vol                        res         0              e-pv                 =       0.43600         <         <         <         >         >         >         -  
vol                        res         0              e-pv                 =       1.27600         -         -         -         <         <         <         >  
month                     null         0              null                 -       4.87700         <         -         >         <         -         >         -  
month                     null         0              null                 -       9.19200         -         >         <         -         >         <         -  
act_typ                    obj   obj_num              name            option         const        const2                fp  outcome           
release                    res         0   multiple_use_fl              dyrt    2781.16000       0.28488              con1  y   y   n   n   n   n   n   
release                    res         0   multiple_use_nf              dyrt     654.80990       0.06030              con1  n   n   y   n   n   n   n   
release                    res         0    sfl_cont+mu_fl              dyrt      72.11525       2.24529              con2  n   n   n   y   y   n   n   
release                    res         0    sfl_cont+mu_nf              dyrt     172.51060       2.88234              con2  n   n   n   n   n   y   n   
release                    res         0          efc_cont              dyrt       1.65619       7.25894              con3  n   n   n   n   n   n   y   

name                     conds      alts      acts  
Arbuckle                     5         7         5  
var                        obj   obj_num           lim_var            lim_op     lim_const      alt1      alt2      alt3      alt4      alt5      alt6      alt7  
vol                        res         0              e-pv                 =      -0.02300         >         >         >         -         -         -         -  
vol                        res         0              e-pv                 =       0.02300         <         <         <         >         >         >         -  
vol                        res         0              e-pv                 =       1.05000         -         -         -         <         <         <         >  
month                     null         0              null                 -       6.46600         <         -         >         <         -         >         -  
month                     null         0              null                 -       9.07200         -         >         <         -         >         <         -  
act_typ                    obj   obj_num              name            option         const        const2                fp  outcome           
release                    res         0   multiple_use_fl              dyrt      54.98376       0.08760              con1  y   y   n   n   n   n   n   
release                    res         0   multiple_use_nf              dyrt      93.37556       0.03090              con1  n   n   y   n   n   n   n   
release                    res         0    sfl_cont+mu_fl              dyrt      18.20613       0.93294              con2  n   n   n   y   y   n   n   
release                    res         0    sfl_cont+mu_nf              dyrt      39.08462       1.04434              con2  n   n   n   n   n   y   n   
release                    res         0          efc_cont              dyrt       1.22871       5.27374              con3  n   n   n   n   n   n   y   

name                     conds      alts      acts  
Arcadia                      5         7         5  
var                        obj   obj_num           lim_var            lim_op     lim_const      alt1      alt2      alt3      alt4      alt5      alt6      alt7  
vol                        res         0              e-pv                 =      -0.20400         >         >         >         -         -         -         -  
vol                        res         0              e-pv                 =       0.07600         <         <         <         >         >         >         -  
vol                        res         0              e-pv                 =       1.14400         -         -         -         <         <         <         >  
month                     null         0              null                 -       6.96600         <         -         >         <         -         >         -  
month                     null         0              null                 -       7.00600         -         >         <         -         >         <         -  
act_typ                    obj   obj_num              name            option         const        const2                fp  outcome           
release                    res         0   multiple_use_fl              dyrt     653.85380       0.12916              con1  y   y   n   n   n   n   n   
release                    res         0   multiple_use_nf              dyrt     587.82540       0.21259              con1  n   n   y   n   n   n   n   
release                    res         0    sfl_cont+mu_fl              dyrt     595.60540       1.04579              con2  n   n   n   y   y   n   n   
release                    res         0    sfl_cont+mu_nf              dyrt     318.55810       2.73502              con2  n   n   n   n   n   y   n   
release                    res         0          efc_cont              dyrt       0.22969       5.54863              con3  n   n   n   n   n   n   y   

name                     conds      alts      acts  
atlus                        5         7         5  
var                        obj   obj_num           lim_var            lim_op     lim_const      alt1      alt2      alt3      alt4      alt5      alt6      alt7  
vol                        res         0              e-pv                 =      -0.01400         >         >         >         -         -         -         -  
vol                        res         0              e-pv                 =       0.22200         <         <         <         >         >         >         -  
vol                        res         0              e-pv                 =       1.89800         -         -         -         <         <         <         >  
month                     null         0              null                 -       3.85000         <         -         >         <         -         >         -  
month                     null         0              null                 -       8.17700         -         >         <         -         >         <         -  
act_typ                    obj   obj_num              name            option         const        const2                fp  outcome           
release                    res         0   multiple_use_fl              dyrt     125.12930       0.30141              con1  y   y   n   n   n   n   n   
release                    res         0   multiple_use_nf              dyrt      16.68514       0.33691              con1  n   n   y   n   n   n   n   
release                    res         0    sfl_cont+mu_fl              dyrt     598.26320       1.09454              con2  n   n   n   y   y   n   n   
release                    res         0    sfl_cont+mu_nf              dyrt       8.70128       2.41284              con2  n   n   n   n   n   y   n   
release                    res         0          efc_cont              dyrt       9.93889       0.03470              con3  n   n   n   n   n   n   y   

name                     conds      alts      acts  
Barkley-lake                 5         7         5  
var                        obj   obj_num           lim_var            lim_op     lim_const      alt1      alt2      alt3      alt4      alt5      alt6      alt7  
vol                        res         0              e-pv                 =     -14.92600         >         >         >         -         -         -         -  
vol                        res         0              e-pv                 =       0.64600         <         <         <         >         >         >         -  
vol                        res         0              e-pv                 =       1.01100         -         -         -         <         <         <         >  
month                     null         0              null                 -       2.45400         <         -         >         <         -         >         -  
month                     null         0              null                 -       7.01300         -         >         <         -         >         <         -  
act_typ                    obj   obj_num              name            option         const        const2                fp  outcome           
release                    res         0   multiple_use_fl              dyrt     719.05970       0.41936              con1  y   y   n   n   n   n   n   
release                    res         0   multiple_use_nf              dyrt     638.64290       1.17449              con1  n   n   y   n   n   n   n   
release                    res         0    sfl_cont+mu_fl              dyrt     110.46160       0.55461              con2  n   n   n   y   y   n   n   
release                    res         0    sfl_cont+mu_nf              dyrt     109.03980       2.77061              con2  n   n   n   n   n   y   n   
release                    res         0          efc_cont              dyrt       0.20686       5.19779              con3  n   n   n   n   n   n   y   

name                     conds      alts      acts  
Beaver-AR-OK                 5         7         5  
var                        obj   obj_num           lim_var            lim_op     lim_const      alt1      alt2      alt3      alt4      alt5      alt6      alt7  
vol                        res         0              e-pv                 =      -0.38600         >         >         >         -         -         -         -  
vol                        res         0              e-pv                 =       0.89500         <         <         <         >         >         >         -  
vol                        res         0              e-pv                 =       0.98800         -         -         -         <         <         <         >  
month                     null         0              null                 -       2.53800         <         -         >         <         -         >         -  
month                     null         0              null                 -       7.01000         -         >         <         -         >         <         -  
act_typ                    obj   obj_num              name            option         const        const2                fp  outcome           
release                    res         0   multiple_use_fl              dyrt     136.93960       0.09580              con1  y   y   n   n   n   n   n   
release                    res         0   multiple_use_nf              dyrt     115.50290       0.12739              con1  n   n   y   n   n   n   n   
release                    res         0    sfl_cont+mu_fl              dyrt      16.60629       0.19061              con2  n   n   n   y   y   n   n   
release                    res         0    sfl_cont+mu_nf              dyrt       6.12922       0.38339              con2  n   n   n   n   n   y   n   
release                    res         0          efc_cont              dyrt       1.98123       2.82849              con3  n   n   n   n   n   n   y   

name                     conds      alts      acts  
Belton-Lake                  5         7         5  
var                        obj   obj_num           lim_var            lim_op     lim_const      alt1      alt2      alt3      alt4      alt5      alt6      alt7  
vol                        res         0              e-pv                 =      -1.74100         >         >         >         -         -         -         -  
vol                        res         0              e-pv                 =       0.09200         <         <         <         >         >         >         -  
vol                        res         0              e-pv                 =       1.14000         -         -         -         <         <         <         >  
month                     null         0              null                 -       2.52900         <         -         >         <         -         >         -  
month                     null         0              null                 -       7.04900         -         >         <         -         >         <         -  
act_typ                    obj   obj_num              name            option         const        const2                fp  outcome           
release                    res         0   multiple_use_fl              dyrt    2138.92900       0.52587              con1  y   y   n   n   n   n   n   
release                    res         0   multiple_use_nf              dyrt    1270.72500       0.33569              con1  n   n   y   n   n   n   n   
release                    res         0    sfl_cont+mu_fl              dyrt      34.07734       2.99908              con2  n   n   n   y   y   n   n   
release                    res         0    sfl_cont+mu_nf              dyrt      69.04078       4.99036              con2  n   n   n   n   n   y   n   
release                    res         0          efc_cont              dyrt       0.62520       5.35282              con3  n   n   n   n   n   n   y   

name                     conds      alts      acts  
BeltonLake                   5         7         5  
var                        obj   obj_num           lim_var            lim_op     lim_const      alt1      alt2      alt3      alt4      alt5      alt6      alt7  
vol                        res         0              e-pv                 =      -0.00200         >         >         >         -         -         -         -  
vol                        res         0              e-pv                 =       0.64700         <         <         <         >         >         >         -  
vol                        res         0              e-pv                 =       0.48900         -         -         -         <         <         <         >  
month                     null         0              null                 -       3.85700         <         -         >         <         -         >         -  
month                     null         0              null                 -      10.00800         -         >         <         -         >         <         -  
act_typ                    obj   obj_num              name            option         const        const2                fp  outcome           
release                    res         0   multiple_use_fl              dyrt     405.59750       0.83818              con1  y   y   n   n   n   n   n   
release                    res         0   multiple_use_nf              dyrt      70.13269       0.92968              con1  n   n   y   n   n   n   n   
release                    res         0    sfl_cont+mu_fl              dyrt      93.96631       0.40829              con2  n   n   n   y   y   n   n   
release                    res         0    sfl_cont+mu_nf              dyrt     151.30040       2.61999              con2  n   n   n   n   n   y   n   
release                    res         0          efc_cont              dyrt       5.34055       3.20253              con3  n   n   n   n   n   n   y   

name                     conds      alts      acts  
Benbrook                     5         7         5  
var                        obj   obj_num           lim_var            lim_op     lim_const      alt1      alt2      alt3      alt4      alt5      alt6      alt7  
vol                        res         0              e-pv                 =      -0.09100         >         >         >         -         -         -         -  
vol                        res         0              e-pv                 =       0.01000         <         <         <         >         >         >         -  
vol                        res         0              e-pv                 =       0.94900         -         -         -         <         <         <         >  
month                     null         0              null                 -       6.96900         <         -         >         <         -         >         -  
month                     null         0              null                 -       9.02900         -         >         <         -         >         <         -  
act_typ                    obj   obj_num              name            option         const        const2                fp  outcome           
release                    res         0   multiple_use_fl              dyrt     570.45900       0.05740              con1  y   y   n   n   n   n   n   
release                    res         0   multiple_use_nf              dyrt    1887.24400       0.05090              con1  n   n   y   n   n   n   n   
release                    res         0    sfl_cont+mu_fl              dyrt      43.73194       1.24670              con2  n   n   n   y   y   n   n   
release                    res         0    sfl_cont+mu_nf              dyrt      30.33346       1.20861              con2  n   n   n   n   n   y   n   
release                    res         0          efc_cont              dyrt       0.74687       5.23896              con3  n   n   n   n   n   n   y   

name                     conds      alts      acts  
Bigbend                      5         7         5  
var                        obj   obj_num           lim_var            lim_op     lim_const      alt1      alt2      alt3      alt4      alt5      alt6      alt7  
vol                        res         0              e-pv                 =     -14.91200         >         >         >         -         -         -         -  
vol                        res         0              e-pv                 =       0.16900         <         <         <         >         >         >         -  
vol                        res         0              e-pv                 =       0.95100         -         -         -         <         <         <         >  
month                     null         0              null                 -       6.80700         <         -         >         <         -         >         -  
month                     null         0              null                 -       9.19200         -         >         <         -         >         <         -  
act_typ                    obj   obj_num              name            option         const        const2                fp  outcome           
release                    res         0   multiple_use_fl              dyrt     132.42620       1.23224              con1  y   y   n   n   n   n   n   
release                    res         0   multiple_use_nf              dyrt      59.50335       0.93817              con1  n   n   y   n   n   n   n   
release                    res         0    sfl_cont+mu_fl              dyrt       8.18925       2.24901              con2  n   n   n   y   y   n   n   
release                    res         0    sfl_cont+mu_nf              dyrt     593.15760       3.05142              con2  n   n   n   n   n   y   n   
release                    res         0          efc_cont              dyrt       1.13092       5.48036              con3  n   n   n   n   n   n   y   

name                     conds      alts      acts  
BigHill                      5         7         5  
var                        obj   obj_num           lim_var            lim_op     lim_const      alt1      alt2      alt3      alt4      alt5      alt6      alt7  
vol                        res         0              e-pv                 =      -0.34800         >         >         >         -         -         -         -  
vol                        res         0              e-pv                 =       0.03400         <         <         <         >         >         >         -  
vol                        res         0              e-pv                 =       0.50900         -         -         -         <         <         <         >  
month                     null         0              null                 -       3.99100         <         -         >         <         -         >         -  
month                     null         0              null                 -      10.09700         -         >         <         -         >         <         -  
act_typ                    obj   obj_num              name            option         const        const2                fp  outcome           
release                    res         0   multiple_use_fl              dyrt     296.68470       0.01510              con1  y   y   n   n   n   n   n   
release                    res         0   multiple_use_nf              dyrt     284.84820       0.06070              con1  n   n   y   n   n   n   n   
release                    res         0    sfl_cont+mu_fl              dyrt       5.45588       1.08097              con2  n   n   n   y   y   n   n   
release                    res         0    sfl_cont+mu_nf              dyrt       3.90422       1.43868              con2  n   n   n   n   n   y   n   
release                    res         0          efc_cont              dyrt       8.77600       6.08184              con3  n   n   n   n   n   n   y   

name                     conds      alts      acts  
Bighorn                      5         7         5  
var                        obj   obj_num           lim_var            lim_op     lim_const      alt1      alt2      alt3      alt4      alt5      alt6      alt7  
vol                        res         0              e-pv                 =      -1.57100         >         >         >         -         -         -         -  
vol                        res         0              e-pv                 =       0.43800         <         <         <         >         >         >         -  
vol                        res         0              e-pv                 =       0.77500         -         -         -         <         <         <         >  
month                     null         0              null                 -       6.80500         <         -         >         <         -         >         -  
month                     null         0              null                 -       7.00400         -         >         <         -         >         <         -  
act_typ                    obj   obj_num              name            option         const        const2                fp  outcome           
release                    res         0   multiple_use_fl              dyrt    1376.23700       0.58770              con1  y   y   n   n   n   n   n   
release                    res         0   multiple_use_nf              dyrt     534.97110       0.73743              con1  n   n   y   n   n   n   n   
release                    res         0    sfl_cont+mu_fl              dyrt      20.74741       1.09164              con2  n   n   n   y   y   n   n   
release                    res         0    sfl_cont+mu_nf              dyrt      18.05885       1.55567              con2  n   n   n   n   n   y   n   